157

C      15.614748604251117      1.235584429049867      6.743822769536046
C      16.884220455360985      0.847663142561355      6.315205764184388
C      17.911589026309770      0.577123200761593      7.223662748742078
C      17.679264877488453      0.695738693798189      8.594168539861558
C      16.424899116104179      1.129422661329216      9.041810655148371
C      15.407089392838399      1.403242206912730      8.127361587885300
C      10.769870568267740     -3.585776621603823      6.498861608599306
C      18.798936268249605      5.639639749746197      5.935982289159712
C      18.751470608478154      4.342136691115646      6.469336152480955
C      17.922143078193042      4.063275509799448      7.557631628256868
C      17.180407875528900      5.094986035531895      8.134325382587281
C      17.246693576369367      6.392652204025504      7.620835423535961
C       6.170846634088120      1.521924041891177      6.764508163973693
C       4.942709389139621      2.048261389036772      6.359387446388251
C       3.920212575501924      2.309846326985379      7.274794115188975
C       4.118387036170809      2.054783204671821      8.632417340928328
C       5.332854891893040      1.500568126703002      9.055403094517922
C       6.342473769819782      1.226406015321819      8.131814277840238
C      11.011571526202850      6.351969911124653      6.462913469724754
C      10.240907628216743      7.384689973260726      5.876379521120274
C      10.272159283857993      8.695688651254283      6.379812968539566
C       3.829336692160044     -1.269488359457256      7.460685121098202
C      11.849557507682821      7.997317227504025      8.060954288455081
C      11.798811219391748      6.686621505125434      7.577987946863670
C      13.504902567526234      4.866918902755533      5.908104175590530
C      14.467624778396914      3.846156947146822      5.861827416716200
C      13.730644309990804      2.595359755748303      5.838729529851487
C      12.210823781851198      4.227551045486024      5.925169005639314
C      14.370449494170447      1.313411695033142      5.883515160028144
C      13.678221212339800      0.051775845060229      5.829333997919020
C      14.360661485518314     -1.222239534287611      5.939345943776273
C      13.369404867464880     -2.198984597382375      6.064789975968314
C      12.102006654434618     -1.528453481300335      5.980085985849661
C      10.824644478501886     -2.175115746631016      5.989085196617296
C       9.578393154271344     -1.468140318587879      5.936583099468077
C       8.284868071875476     -2.104474883553694      5.915382690381435
C       7.323339243760462     -1.081737704620735      5.869480873272475
C       8.058136816935257      0.166888117392439      5.851831258939882
C       7.419127318251171      1.451273035105934      5.913331302568627
C       8.108881056756918      2.708428667894836      5.854000248661457
C       7.429844337100660      3.987799887771776      5.955038993070956
C       8.423999018374325      4.958387871964868      6.070356619334510
C       9.689660436279695      4.281609232025173      5.986045275198760
C      10.964334485335277      4.931366297655715      5.979694688840699
N      12.361916009562986      2.843130407002773      5.878139194783344
N      12.300007284910635     -0.146632483580903      5.859876888806043
N       9.427570957465990     -0.083341109091676      5.887417984159347
N       9.487820914883802      2.902092295512329      5.882108978767483
H      13.670187891363746      5.919501716706703      6.122001705346460
H      15.534645785934959      3.932923825135186      6.075051242216258
H      15.420943497380501     -1.339366879904932      6.159817931122912
H      13.528627289644218     -3.233891012990282      6.356047259446803
H      15.383707978544106      7.120219088581030      6.124728525406515
H       6.253879475151822     -1.173038333222440      6.067104086561597
H       6.372079789096602      4.110877447183444      6.182153342966311
H       8.269677710016747      5.997672740760962      6.346855157322893
H       4.357094991422120      5.406653176804405      6.848845613944111
H      16.235133873027593      1.247198446638343     10.112678243701854
H      19.393545447508743      3.564743800340409      6.037374279294031
H      16.552934879258618      4.890634176370313      9.007746929487173
H       2.974472577074736      2.731503059973838      6.919286073291802
H       5.498526577029377      1.288324649729145     10.115715062972024
H       2.347958491480101     -0.824541244438931      5.934068589077518
H      12.474750064712680      8.228622903026148      8.929393923347307
H      17.050113157353888      0.736503734414655      5.229639091268131
H      14.417849322983125      1.713005897421289      8.482984970361638
H      19.553286209440575      5.866282839334906      5.162959607005417
H       9.422011941739347     -3.081564132832192      8.110171467100246
H       4.818865720756019      2.305550056728190      5.293363268810227
H       7.302365168796129      0.822367819548023      8.472550635185312
H       9.481796477541476      7.131849996255690      5.114988284952632
H      12.365618764490300      5.900623796828695      8.085246131072360
H      18.473746412890062      0.467993223162511      9.310872868407163
H      17.877961237611906      3.056361932157943      7.970640317244040
H       3.328882679806208      2.277044054646025      9.356290982650281
H       3.861164701929153     -0.252590960176815      7.849445603325836
Ru     10.893926886065673      1.379210020962310      5.831496781236834
Cu     21.800068651193783      5.140314975114598      3.727408921109245
Cu      3.658539462936861      5.104897214086394      3.669576181528563
Cu      7.348489127209903     -2.504284964177019      3.790119694372707
Cu     10.892209350038936      2.547536873969278      3.642985174401563
Cu      3.636221544271340      0.020716940501074      3.693057323973798
Cu      7.348724566946287      5.120105810043235      3.867741398219115
Cu     10.855802284717479     -2.499225745532808      3.742716516364994
Cu     14.589393075170889      2.531963379881763      3.790147123731283
Cu      7.215427502616667      0.030132810168159      3.776013177041156
Cu     10.947167779831892      5.111421614759800      3.738993058349720
Cu     14.444209903058807     -2.532096509430335      3.850225751358622
Cu     18.171719144675350      2.561679165890205      3.688802848480691
Cu      3.601521389619772      2.585626499847078      3.673741412517395
Cu      7.249265779204720      7.728391130077417      3.723551539429305
Cu     10.920106180881321      0.072275230696816      3.666741138509332
Cu     14.464213903381001      5.090619355634429      3.808876029453623
Cu      7.261579878616829      2.540380164616686      3.798780688209825
Cu     10.970622402245581      7.729614431423883      3.737872162030905
Cu     14.546717074571269      0.028393997451352      3.784679478851303
Cu     18.107782246933240      5.144570567564813      3.749661034621389
Cu      1.769700210669508      1.305231891020257      2.622206930658762
Cu      5.490700459005984      6.403423965273591      2.618785566781256
Cu      9.086468182704563     -1.248180172911266      2.485128920950329
Cu     12.728677841131223      3.834888214214105      2.483668151774965
Cu      5.448400719197544      1.301193665402521      2.542623542698722
Cu      9.085727028656500      6.421144558347717      2.556746776237024
Cu     12.712979652253516     -1.269315874371933      2.498296533651602
Cu     16.328224011865604      3.855397316300491      2.570521745865818
Cu      9.054435294980967      1.288077471626392      2.511941493257846
Cu     12.760128725152995      6.442685372789636      2.573340729308904
Cu     16.306450866992531     -1.291643217747247      2.585531692025191
Cu     19.978817180194984      3.865486935342803      2.576475147343344
Cu      5.500996617909232      3.860360376643735      2.586306569103743
Cu      9.082783062183395      8.995465296311174      2.573279248181793
Cu     12.751411008222377      1.291969269548118      2.504647721642250
Cu     16.318689490170254      6.416116167492453      2.577457599809649
Cu      9.081924803453518      3.854371513898617      2.501237065026983
Cu      5.473614097805326     -1.279500967921833      2.559580061103769
Cu     16.358812333959076      1.273575408791461      2.538505582904729
Cu     12.708842544815580     -3.837621717079887      2.557365361718452
Cu      0.000000000000000      0.000000000000000      1.284812919429883
Cu     18.170000072679954     -0.000000869364900      1.284812919429883
Cu      7.268000000000000     -2.569626000000000      1.284812919429883
Cu     10.901999999999999      2.569626055700148      1.284812919429883
Cu      3.634000000000051     -0.000000143037458      1.284812919429883
Cu      7.268000072680057      5.139252015447696      1.284812919429883
Cu     10.901999927319993     -2.569625988859999      1.284812919429883
Cu     14.536000072680057      2.569626015447696      1.284812919429883
Cu      7.267999999999948     -0.000000286074955      1.284812919429883
Cu     10.901999999999948      5.139252026587734      1.284812919429883
Cu     14.536000000000051     -2.569626029112449      1.284812919429883
Cu     18.169999999999948      2.569626026587734      1.284812919429883
Cu      3.633999927319943      2.569625982027588      1.284812919429883
Cu      7.268000072679954      7.708877986335211      1.284812919429883
Cu     10.901999927319993     -0.000000531897422      1.284812919429883
Cu     14.535999927319992      5.139251009877643      1.284812919429883
Cu      7.267999999999999      2.569625941775137      1.284812919429883
Cu     10.902000000000001      7.708877997475285      1.284812919429883
Cu     14.535999927319995     -0.000000674934953      1.284812919429883
Cu     18.170000000000002      5.139251997475285      1.284812919429883
Cu      1.817000072680057      1.284813016710054      0.000000000000000
Cu      5.451000000000051      6.424064969625193      0.000000000000000
Cu      9.085000072680057     -1.284812983289946      0.000000000000000
Cu     12.719000000000051      3.854438969625194      0.000000000000000
Cu      5.450999999999948      1.284813027850092      0.000000000000000
Cu      9.084999927319942      6.424064980765230      0.000000000000000
Cu     12.718999999999948     -1.284812972149908      0.000000000000000
Cu     16.352999927319942      3.854438980765230      0.000000000000000
Cu      9.085000072680005      1.284812987597642      0.000000000000000
Cu     12.719000000000001      6.424064940512780      0.000000000000000
Cu     16.353000072680008     -1.284813012402359      0.000000000000000
Cu     19.987000072680058      3.854438015447696      0.000000000000000
Cu      5.451000000000001      3.854438998737642      0.000000000000000
Cu      9.084999999999948      8.993690026587734      0.000000000000000
Cu     12.719000000000001      1.284812998737642      0.000000000000000
Cu     16.353000000000002      6.424062998737642      0.000000000000000
Cu      9.084999927319993      3.854439009877644      0.000000000000000
Cu      5.451000000000000     -1.284812943037495      0.000000000000000
Cu     16.352999927319992      1.284813009877643      0.000000000000000
Cu     12.718999999999999     -3.854438943037496      0.000000000000000
